<?xml version="1.0" encoding="UTF-8"?>
<!-- SUMO Configuration File -->
<!-- Links network and route files, sets simulation parameters -->
<configuration xmlns:xsi="http://www.w3.org/2001/XMLSchema-instance" xsi:noNamespaceSchemaLocation="http://sumo.dlr.de/xsd/sumoConfiguration.xsd">

    <input>
        <net-file value="../networks/single_intersection.net.xml"/>
        <route-files value="../routes/normal_traffic.rou.xml"/>
    </input>

    <time>
        <begin value="0"/>
        <end value="3600"/>
        <step-length value="1.0"/>
    </time>

    <processing>
        <time-to-teleport value="-1"/>
        <collision.action value="warn"/>
    </processing>

    <report>
        <verbose value="true"/>
        <no-step-log value="false"/>
    </report>

    <gui_only>
        <start value="true"/>
        <quit-on-end value="false"/>
    </gui_only>

</configuration>
